
#======================================================================
# CRYSTAL DATA
#----------------------------------------------------------------------
data_VESTA_phase_1

_chemical_name_common                  'Struct file generated by XCrySD'
_cell_length_a                         7.305699
_cell_length_b                         7.305697
_cell_length_c                         25.000002
_cell_angle_alpha                      90.000000
_cell_angle_beta                       90.000000
_cell_angle_gamma                      120.000015
_cell_volume                           1155.564216
_space_group_name_H-M_alt              'P 1'
_space_group_IT_number                 1

loop_
_space_group_symop_operation_xyz
   'x, y, z'

loop_
   _atom_site_label
   _atom_site_occupancy
   _atom_site_fract_x
   _atom_site_fract_y
   _atom_site_fract_z
   _atom_site_adp_type
   _atom_site_U_iso_or_equiv
   _atom_site_type_symbol
   N1         1.0     0.000009     0.999986     0.405203    Uiso  ? N
   N2         1.0     0.000009     0.333355     0.405203    Uiso  ? N
   C1         1.0     0.222187     0.110989     0.425581    Uiso  ? C
   C2         1.0     0.222041     0.110953     0.489594    Uiso  ? C
   C3         1.0     0.555576     0.110953     0.489595    Uiso  ? C
   C4         1.0     0.555576     0.777956     0.489595    Uiso  ? C
   C5         1.0     0.889044     0.444422     0.489594    Uiso  ? C
   C6         1.0     0.889044     0.777956     0.489594    Uiso  ? C
   C7         1.0     0.999950     0.000047     0.510550    Uiso  ? C
   C8         1.0     0.000502     0.999495     0.574493    Uiso  ? C
   C9         1.0     0.000502     0.334338     0.574493    Uiso  ? C
   C10        1.0     0.665660     0.999496     0.574493    Uiso  ? C
   N3         1.0     0.217730     0.107851     0.594929    Uiso  ? N
   N4         1.0     0.217731     0.443210     0.594929    Uiso  ? N
   N5         1.0     0.556787     0.107852     0.594929    Uiso  ? N
   N6         1.0     0.556788     0.782267     0.594929    Uiso  ? N
   N7         1.0     0.892145     0.443210     0.594929    Uiso  ? N
   N8         1.0     0.892145     0.782266     0.594929    Uiso  ? N
   C11        1.0     0.222187     0.444530     0.425581    Uiso  ? C
   C12        1.0     0.555465     0.777808     0.425581    Uiso  ? C
   C13        1.0     0.889006     0.444531     0.425581    Uiso  ? C
   C14        1.0     0.222042     0.444422     0.489594    Uiso  ? C
   C15        1.0     0.999951     0.333236     0.510550    Uiso  ? C
   N9         1.0     0.000102     0.666718     0.405298    Uiso  ? N
   C16        1.0     0.222220     0.777776     0.425842    Uiso  ? C
   C17        1.0     0.222221     0.777777     0.489789    Uiso  ? C
   C18        1.0     0.999692     0.666512     0.510703    Uiso  ? C
   C19        1.0     0.333485     0.000305     0.510703    Uiso  ? C
   C20        1.0     0.333485     0.666512     0.510703    Uiso  ? C
   C21        1.0     0.000018     0.666675     0.574735    Uiso  ? C
   C22        1.0     0.333322     0.999979     0.574734    Uiso  ? C
   C23        1.0     0.333323     0.666675     0.574735    Uiso  ? C
   N10        1.0     0.222221     0.777776     0.594885    Uiso  ? N
   N11        1.0     0.333278     0.999893     0.405299    Uiso  ? N
   N12        1.0     0.333278     0.666718     0.405299    Uiso  ? N
   C24        1.0     0.555466     0.110989     0.425581    Uiso  ? C
   N13        1.0     0.333297     0.333314     0.405158    Uiso  ? N
   N14        1.0     0.666681     0.333315     0.405158    Uiso  ? N
   N15        1.0     0.666680     0.666698     0.405157    Uiso  ? N
   C25        1.0     0.555552     0.444442     0.425597    Uiso  ? C
   C26        1.0     0.555554     0.444443     0.489667    Uiso  ? C
   C27        1.0     0.331942     0.332637     0.510034    Uiso  ? C
   C28        1.0     0.667360     0.332637     0.510035    Uiso  ? C
   C29        1.0     0.667360     0.668055     0.510035    Uiso  ? C
   C30        1.0     0.321449     0.327390     0.575658    Uiso  ? C
   C31        1.0     0.672607     0.327391     0.575658    Uiso  ? C
   C32        1.0     0.672606     0.678547     0.575658    Uiso  ? C
   B1         1.0     0.555554     0.444442     0.587807    Uiso  ? B
   N16        1.0     0.666640     0.999986     0.405203    Uiso  ? N
   C33        1.0     0.888886     0.111109     0.425780    Uiso  ? C
   C34        1.0     0.888888     0.111111     0.489553    Uiso  ? C
   C35        1.0     0.666762     0.000047     0.510550    Uiso  ? C
   N17        1.0     0.888888     0.111110     0.594959    Uiso  ? N
   C36        1.0     0.889006     0.777809     0.425581    Uiso  ? C
