
#======================================================================
# CRYSTAL DATA
#----------------------------------------------------------------------
data_VESTA_phase_1

_chemical_name_common                  'Wien97 struct file generated by XCrySD'
_cell_length_a                         7.269300
_cell_length_b                         7.269298
_cell_length_c                         25.000002
_cell_angle_alpha                      90.000000
_cell_angle_beta                       90.000000
_cell_angle_gamma                      120.000015
_cell_volume                           1144.078033
_space_group_name_H-M_alt              'P 1'
_space_group_IT_number                 1

loop_
_space_group_symop_operation_xyz
   'x, y, z'

loop_
   _atom_site_label
   _atom_site_occupancy
   _atom_site_fract_x
   _atom_site_fract_y
   _atom_site_fract_z
   _atom_site_adp_type
   _atom_site_U_iso_or_equiv
   _atom_site_type_symbol
   N1         1.0     0.000000     0.000000     0.405157    Uiso  ? N
   N2         1.0     0.222221     0.111111     0.594843    Uiso  ? N
   N3         1.0     1.000000     0.333333     0.405157    Uiso  ? N
   N4         1.0     0.222222     0.444443     0.594843    Uiso  ? N
   N5         1.0     0.222222     0.777776     0.594843    Uiso  ? N
   N6         1.0     0.333333     0.000000     0.405157    Uiso  ? N
   N7         1.0     0.555554     0.111110     0.594843    Uiso  ? N
   N8         1.0     0.333333     0.333333     0.405157    Uiso  ? N
   N9         1.0     0.555554     0.444444     0.594843    Uiso  ? N
   N10        1.0     0.333332     0.666665     0.405157    Uiso  ? N
   N11        1.0     0.555554     0.777776     0.594843    Uiso  ? N
   N12        1.0     0.666664     0.000000     0.405157    Uiso  ? N
   N13        1.0     0.666665     0.333332     0.405157    Uiso  ? N
   N14        1.0     0.888887     0.444444     0.594843    Uiso  ? N
   N15        1.0     0.666664     0.666664     0.405157    Uiso  ? N
   N16        1.0     0.888886     0.777776     0.594843    Uiso  ? N
   C1         1.0     0.222223     0.111111     0.425605    Uiso  ? C
   C2         1.0     0.000000     0.000000     0.574395    Uiso  ? C
   C3         1.0     0.222222     0.444443     0.425605    Uiso  ? C
   C4         1.0     0.000000     0.333334     0.574395    Uiso  ? C
   C5         1.0     0.222222     0.777775     0.425605    Uiso  ? C
   C6         1.0     0.555554     0.111111     0.425605    Uiso  ? C
   C7         1.0     0.333333     0.999999     0.574395    Uiso  ? C
   C8         1.0     0.555554     0.444443     0.425605    Uiso  ? C
   C9         1.0     0.333333     0.333334     0.574395    Uiso  ? C
   C10        1.0     0.555554     0.777775     0.425605    Uiso  ? C
   C11        1.0     0.333332     0.666665     0.574395    Uiso  ? C
   C12        1.0     0.888886     0.777774     0.425605    Uiso  ? C
   C13        1.0     0.666663     0.666664     0.574395    Uiso  ? C
   C14        1.0     0.222222     0.111111     0.489512    Uiso  ? C
   C15        1.0     0.000000     0.000000     0.510489    Uiso  ? C
   C16        1.0     0.222222     0.444444     0.489512    Uiso  ? C
   C17        1.0     0.000001     0.333334     0.510488    Uiso  ? C
   C18        1.0     0.222222     0.777775     0.489512    Uiso  ? C
   C19        1.0     0.555554     0.111111     0.489511    Uiso  ? C
   C20        1.0     0.333333     0.999999     0.510488    Uiso  ? C
   C21        1.0     0.555554     0.444443     0.489511    Uiso  ? C
   C22        1.0     0.333333     0.333334     0.510488    Uiso  ? C
   C23        1.0     0.555554     0.777775     0.489512    Uiso  ? C
   C24        1.0     0.333332     0.666665     0.510488    Uiso  ? C
   C25        1.0     0.888886     0.777775     0.489512    Uiso  ? C
   C26        1.0     0.666663     0.666664     0.510488    Uiso  ? C
   N17        1.0     1.000000     0.666664     0.405157    Uiso  ? N
   N18        1.0     0.888886     0.111111     0.594843    Uiso  ? N
   C27        1.0     0.000001     0.666664     0.510488    Uiso  ? C
   C28        1.0     0.000000     0.666664     0.574395    Uiso  ? C
   C29        1.0     0.888886     0.111111     0.425605    Uiso  ? C
   C30        1.0     0.888886     0.111111     0.489512    Uiso  ? C
   C31        1.0     0.666663     0.999999     0.510488    Uiso  ? C
   C32        1.0     0.666663     0.999999     0.574395    Uiso  ? C
   C33        1.0     0.888886     0.444443     0.425605    Uiso  ? C
   C34        1.0     0.888886     0.444443     0.489511    Uiso  ? C
   C35        1.0     0.666665     0.333332     0.510488    Uiso  ? C
   C36        1.0     0.666665     0.333332     0.574394    Uiso  ? C
