
#======================================================================
# CRYSTAL DATA
#----------------------------------------------------------------------
data_VESTA_phase_1

_chemical_name_common                  'Wien97 struct file generated by XCrySD'
_cell_length_a                         7.319499
_cell_length_b                         7.319498
_cell_length_c                         25.000000
_cell_angle_alpha                      90.000000
_cell_angle_beta                       90.000000
_cell_angle_gamma                      120.000015
_cell_volume                           1159.933871
_space_group_name_H-M_alt              'P 1'
_space_group_IT_number                 1

loop_
_space_group_symop_operation_xyz
   'x, y, z'

loop_
   _atom_site_label
   _atom_site_occupancy
   _atom_site_fract_x
   _atom_site_fract_y
   _atom_site_fract_z
   _atom_site_adp_type
   _atom_site_U_iso_or_equiv
   _atom_site_type_symbol
   N1         1.0     0.000074     0.999925     0.404860    Uiso  ? N
   N2         1.0     0.000074     0.333482     0.404860    Uiso  ? N
   N3         1.0     0.666517     0.999925     0.404860    Uiso  ? N
   C1         1.0     0.222415     0.111302     0.425384    Uiso  ? C
   C2         1.0     0.222415     0.444446     0.425384    Uiso  ? C
   C3         1.0     0.555553     0.111302     0.425384    Uiso  ? C
   C4         1.0     0.555553     0.777585     0.425384    Uiso  ? C
   C5         1.0     0.888697     0.444446     0.425384    Uiso  ? C
   C6         1.0     0.888697     0.777585     0.425384    Uiso  ? C
   C7         1.0     0.222389     0.111391     0.489207    Uiso  ? C
   C8         1.0     0.222389     0.444331     0.489207    Uiso  ? C
   C9         1.0     0.555668     0.111391     0.489207    Uiso  ? C
   C10        1.0     0.555668     0.777611     0.489207    Uiso  ? C
   C11        1.0     0.888609     0.444331     0.489207    Uiso  ? C
   C12        1.0     0.888609     0.777611     0.489207    Uiso  ? C
   C13        1.0     0.999919     0.000080     0.509806    Uiso  ? C
   C14        1.0     0.999919     0.333172     0.509806    Uiso  ? C
   C15        1.0     0.666827     0.000080     0.509806    Uiso  ? C
   C16        1.0     0.000347     0.999652     0.573435    Uiso  ? C
   C17        1.0     0.000347     0.334028     0.573435    Uiso  ? C
   C18        1.0     0.665971     0.999652     0.573435    Uiso  ? C
   N4         1.0     0.215886     0.106608     0.593825    Uiso  ? N
   N5         1.0     0.215886     0.442610     0.593825    Uiso  ? N
   N6         1.0     0.557389     0.106608     0.593825    Uiso  ? N
   N7         1.0     0.557389     0.784114     0.593825    Uiso  ? N
   N8         1.0     0.893391     0.442610     0.593825    Uiso  ? N
   N9         1.0     0.893391     0.784114     0.593825    Uiso  ? N
   N10        1.0     0.999858     0.666596     0.404907    Uiso  ? N
   N11        1.0     0.333403     0.000141     0.404907    Uiso  ? N
   N12        1.0     0.333404     0.666596     0.404907    Uiso  ? N
   C19        1.0     0.222222     0.777778     0.425289    Uiso  ? C
   C20        1.0     0.222222     0.777778     0.489087    Uiso  ? C
   C21        1.0     0.999974     0.666654     0.510040    Uiso  ? C
   C22        1.0     0.333346     0.000025     0.510040    Uiso  ? C
   C23        1.0     0.333346     0.666654     0.510040    Uiso  ? C
   C24        1.0     0.000797     0.667065     0.573592    Uiso  ? C
   C25        1.0     0.332935     0.999202     0.573592    Uiso  ? C
   C26        1.0     0.332935     0.667065     0.573592    Uiso  ? C
   N13        1.0     0.222222     0.777778     0.594046    Uiso  ? N
   N14        1.0     0.333744     0.333539     0.405102    Uiso  ? N
   N15        1.0     0.666461     0.333539     0.405102    Uiso  ? N
   N16        1.0     0.666461     0.666255     0.405102    Uiso  ? N
   C27        1.0     0.555555     0.444444     0.425844    Uiso  ? C
   C28        1.0     0.555555     0.444444     0.490314    Uiso  ? C
   C29        1.0     0.333062     0.333197     0.510789    Uiso  ? C
   C30        1.0     0.666802     0.333197     0.510789    Uiso  ? C
   C31        1.0     0.666802     0.666938     0.510789    Uiso  ? C
   C32        1.0     0.320025     0.326679     0.574334    Uiso  ? C
   C33        1.0     0.673321     0.326679     0.574334    Uiso  ? C
   C34        1.0     0.673321     0.679975     0.574334    Uiso  ? C
   P1         1.0     0.555555     0.444444     0.616109    Uiso  ? P
   C35        1.0     0.888888     0.111111     0.425215    Uiso  ? C
   C36        1.0     0.888889     0.111111     0.488842    Uiso  ? C
   N17        1.0     0.888889     0.111111     0.594168    Uiso  ? N
