
#======================================================================
# CRYSTAL DATA
#----------------------------------------------------------------------
data_VESTA_phase_1

_chemical_name_common                  'Wien97 struct file generated by XCrySD'
_cell_length_a                         7.339600
_cell_length_b                         7.339600
_cell_length_c                         25.000000
_cell_angle_alpha                      90.000000
_cell_angle_beta                       90.000000
_cell_angle_gamma                      120.000000
_cell_volume                           1166.313703
_space_group_name_H-M_alt              'P 1'
_space_group_IT_number                 1

loop_
_space_group_symop_operation_xyz
   'x, y, z'

loop_
   _atom_site_label
   _atom_site_occupancy
   _atom_site_fract_x
   _atom_site_fract_y
   _atom_site_fract_z
   _atom_site_adp_type
   _atom_site_U_iso_or_equiv
   _atom_site_type_symbol
   N1         1.0     0.000083     0.999935     0.406884    Uiso  ? N
   N2         1.0     0.000083     0.666812     0.406884    Uiso  ? N
   N3         1.0     0.333393     0.333245     0.406884    Uiso  ? N
   N4         1.0     0.333394     0.666812     0.406884    Uiso  ? N
   N5         1.0     0.666517     0.999935     0.406884    Uiso  ? N
   N6         1.0     0.666517     0.333245     0.406884    Uiso  ? N
   N7         1.0     0.328621     0.329885     0.593225    Uiso  ? N
   N8         1.0     0.328621     0.665402     0.593225    Uiso  ? N
   N9         1.0     0.667928     0.329885     0.593225    Uiso  ? N
   N10        1.0     0.667928     1.004709     0.593225    Uiso  ? N
   N11        1.0     1.003445     0.665402     0.593224    Uiso  ? N
   N12        1.0     1.003445     1.004709     0.593225    Uiso  ? N
   C1         1.0     0.222245     0.111084     0.489739    Uiso  ? C
   C2         1.0     0.222313     0.111015     0.427207    Uiso  ? C
   C3         1.0     0.222314     0.777963     0.427207    Uiso  ? C
   C4         1.0     0.555366     0.111015     0.427207    Uiso  ? C
   C5         1.0     0.111575     0.221755     0.572834    Uiso  ? C
   C6         1.0     0.111575     0.556485     0.572834    Uiso  ? C
   C7         1.0     0.776845     0.221755     0.572834    Uiso  ? C
   C8         1.0     0.111117     0.222212     0.510280    Uiso  ? C
   C9         1.0     0.777759     0.222212     0.510279    Uiso  ? C
   N13        1.0     0.999998     0.333330     0.406691    Uiso  ? N
   C10        1.0     0.221986     0.444325     0.489415    Uiso  ? C
   C11        1.0     0.889004     0.111343     0.489415    Uiso  ? C
   C12        1.0     0.889004     0.444325     0.489415    Uiso  ? C
   C13        1.0     0.222249     0.444456     0.426959    Uiso  ? C
   C14        1.0     0.888872     0.444456     0.426959    Uiso  ? C
   C15        1.0     0.111117     0.555570     0.510279    Uiso  ? C
   N14        1.0     0.333331     0.999999     0.593266    Uiso  ? N
   C16        1.0     0.222245     0.777825     0.489739    Uiso  ? C
   C17        1.0     0.111284     0.888975     0.573236    Uiso  ? C
   C18        1.0     0.444355     0.888975     0.573236    Uiso  ? C
   C19        1.0     0.111008     0.888836     0.510614    Uiso  ? C
   C20        1.0     0.444493     0.888836     0.510614    Uiso  ? C
   N15        1.0     0.333331     0.999997     0.406905    Uiso  ? N
   C21        1.0     0.555504     0.111084     0.489739    Uiso  ? C
   C22        1.0     0.444355     0.222046     0.573236    Uiso  ? C
   C23        1.0     0.444492     0.222321     0.510614    Uiso  ? C
   B1         1.0     0.666665     0.666665     0.586997    Uiso  ? B
   C24        1.0     0.555582     0.444499     0.489857    Uiso  ? C
   C25        1.0     0.555582     0.777747     0.489857    Uiso  ? C
   C26        1.0     0.888830     0.777747     0.489857    Uiso  ? C
   C27        1.0     0.555479     0.444293     0.427139    Uiso  ? C
   C28        1.0     0.433594     0.550130     0.574514    Uiso  ? C
   C29        1.0     0.783200     0.550130     0.574513    Uiso  ? C
   C30        1.0     0.783200     0.899736     0.574514    Uiso  ? C
   C31        1.0     0.443546     0.555105     0.509972    Uiso  ? C
   C32        1.0     0.778224     0.555105     0.509971    Uiso  ? C
   C33        1.0     0.778224     0.889782     0.509972    Uiso  ? C
   C34        1.0     0.555479     0.777849     0.427139    Uiso  ? C
   N16        1.0     0.999998     0.333332     0.593096    Uiso  ? N
   C35        1.0     0.888872     0.111079     0.426959    Uiso  ? C
   N17        1.0     0.666664     0.666664     0.407097    Uiso  ? N
   C36        1.0     0.889035     0.777849     0.427139    Uiso  ? C
