
#======================================================================
# CRYSTAL DATA
#----------------------------------------------------------------------
data_VESTA_phase_1

_chemical_name_common                  'Wien97 struct file generated by XCrySD'
_cell_length_a                         7.370525
_cell_length_b                         7.370533
_cell_length_c                         25.000004
_cell_angle_alpha                      90.000000
_cell_angle_beta                       90.000000
_cell_angle_gamma                      120.000023
_cell_volume                           1176.164019
_space_group_name_H-M_alt              'P 1'
_space_group_IT_number                 1

loop_
_space_group_symop_operation_xyz
   'x, y, z'

loop_
   _atom_site_label
   _atom_site_occupancy
   _atom_site_fract_x
   _atom_site_fract_y
   _atom_site_fract_z
   _atom_site_adp_type
   _atom_site_U_iso_or_equiv
   _atom_site_type_symbol
   N1         1.0     0.999876     0.999610     0.406708    Uiso  ? N
   N2         1.0     0.999875     0.666931     0.406708    Uiso  ? N
   N3         1.0     0.333722     0.333457     0.406707    Uiso  ? N
   N4         1.0     0.333723     0.666932     0.406707    Uiso  ? N
   N5         1.0     0.666401     0.999609     0.406707    Uiso  ? N
   N6         1.0     0.666401     0.333457     0.406708    Uiso  ? N
   N7         1.0     0.325690     0.327843     0.592216    Uiso  ? N
   N8         1.0     0.325689     0.664515     0.592216    Uiso  ? N
   N9         1.0     0.668821     0.327842     0.592216    Uiso  ? N
   N10        1.0     0.668822     1.007649     0.592216    Uiso  ? N
   N11        1.0     1.005494     0.664515     0.592216    Uiso  ? N
   N12        1.0     1.005494     1.007648     0.592216    Uiso  ? N
   C1         1.0     0.222254     0.111079     0.489205    Uiso  ? C
   C2         1.0     0.222254     0.777842     0.489206    Uiso  ? C
   C3         1.0     0.555492     0.111079     0.489205    Uiso  ? C
   C4         1.0     0.222342     0.110991     0.426823    Uiso  ? C
   C5         1.0     0.222342     0.778017     0.426823    Uiso  ? C
   C6         1.0     0.555317     0.110991     0.426823    Uiso  ? C
   C7         1.0     0.111728     0.221610     0.571836    Uiso  ? C
   C8         1.0     0.776551     0.221611     0.571835    Uiso  ? C
   C9         1.0     0.111039     0.222295     0.509542    Uiso  ? C
   C10        1.0     0.111039     0.555412     0.509542    Uiso  ? C
   C11        1.0     0.777922     0.222295     0.509543    Uiso  ? C
   N13        1.0     0.999999     0.333332     0.406397    Uiso  ? N
   C12        1.0     0.222415     0.444541     0.488887    Uiso  ? C
   C13        1.0     0.888793     0.110919     0.488887    Uiso  ? C
   C14        1.0     0.888793     0.444542     0.488887    Uiso  ? C
   C15        1.0     0.222460     0.444563     0.426719    Uiso  ? C
   C16        1.0     0.888769     0.110872     0.426719    Uiso  ? C
   C17        1.0     0.888769     0.444564     0.426719    Uiso  ? C
   C18        1.0     0.111728     0.556787     0.571836    Uiso  ? C
   N14        1.0     0.333335     1.000002     0.592549    Uiso  ? N
   C19        1.0     0.112264     0.889466     0.572290    Uiso  ? C
   C20        1.0     0.443870     0.221071     0.572290    Uiso  ? C
   C21        1.0     0.443870     0.889468     0.572290    Uiso  ? C
   C22        1.0     0.111071     0.888869     0.510082    Uiso  ? C
   C23        1.0     0.444466     0.222263     0.510082    Uiso  ? C
   C24        1.0     0.444465     0.888870     0.510082    Uiso  ? C
   N15        1.0     0.333333     0.999999     0.406505    Uiso  ? N
   Si1        1.0     0.666667     0.666669     0.612899    Uiso  ? Si
   C25        1.0     0.555798     0.444930     0.489971    Uiso  ? C
   C26        1.0     0.555797     0.777536     0.489971    Uiso  ? C
   C27        1.0     0.888405     0.777536     0.489971    Uiso  ? C
   C28        1.0     0.555645     0.444622     0.427233    Uiso  ? C
   C29        1.0     0.555644     0.777687     0.427233    Uiso  ? C
   C30        1.0     0.888710     0.777688     0.427233    Uiso  ? C
   C31        1.0     0.427587     0.547128     0.573078    Uiso  ? C
   C32        1.0     0.786208     0.547128     0.573078    Uiso  ? C
   C33        1.0     0.786208     0.905749     0.573078    Uiso  ? C
   C34        1.0     0.443733     0.555199     0.510559    Uiso  ? C
   C35        1.0     0.778133     0.555199     0.510560    Uiso  ? C
   C36        1.0     0.778134     0.889602     0.510560    Uiso  ? C
   N16        1.0     1.000003     0.333336     0.592355    Uiso  ? N
   N17        1.0     0.666666     0.666666     0.407069    Uiso  ? N
