
#======================================================================
# CRYSTAL DATA
#----------------------------------------------------------------------
data_VESTA_phase_1

_chemical_name_common                  'Wien97 struct file generated by XCrySD'
_cell_length_a                         7.305700
_cell_length_b                         7.305700
_cell_length_c                         25.000000
_cell_angle_alpha                      90.000000
_cell_angle_beta                       90.000000
_cell_angle_gamma                      120.000000
_cell_volume                           1155.564909
_space_group_name_H-M_alt              'P 1'
_space_group_IT_number                 1

loop_
_space_group_symop_operation_xyz
   'x, y, z'

loop_
   _atom_site_label
   _atom_site_occupancy
   _atom_site_fract_x
   _atom_site_fract_y
   _atom_site_fract_z
   _atom_site_adp_type
   _atom_site_U_iso_or_equiv
   _atom_site_type_symbol
   N1         1.0     0.000019     0.999977     0.404845    Uiso  ? N
   N2         1.0     0.000019     0.333375     0.404845    Uiso  ? N
   N3         1.0     0.666621     0.999977     0.404845    Uiso  ? N
   C1         1.0     0.222323     0.111244     0.425086    Uiso  ? C
   C2         1.0     0.222324     0.444412     0.425086    Uiso  ? C
   C3         1.0     0.555584     0.111244     0.425086    Uiso  ? C
   C4         1.0     0.555584     0.777672     0.425086    Uiso  ? C
   C5         1.0     0.888752     0.444412     0.425086    Uiso  ? C
   C6         1.0     0.888752     0.777672     0.425086    Uiso  ? C
   C7         1.0     0.222301     0.111428     0.489330    Uiso  ? C
   C8         1.0     0.222301     0.444205     0.489330    Uiso  ? C
   C9         1.0     0.555791     0.111428     0.489330    Uiso  ? C
   C10        1.0     0.555791     0.777695     0.489330    Uiso  ? C
   C11        1.0     0.888568     0.444205     0.489330    Uiso  ? C
   C12        1.0     0.888568     0.777695     0.489330    Uiso  ? C
   C13        1.0     0.000065     0.999932     0.509476    Uiso  ? C
   C14        1.0     0.000065     0.333465     0.509477    Uiso  ? C
   C15        1.0     0.666531     0.999931     0.509476    Uiso  ? C
   C16        1.0     0.000889     0.999107     0.574363    Uiso  ? C
   C17        1.0     0.000889     0.335113     0.574363    Uiso  ? C
   C18        1.0     0.664884     0.999107     0.574363    Uiso  ? C
   N4         1.0     0.218261     0.108802     0.593449    Uiso  ? N
   N5         1.0     0.218261     0.442791     0.593449    Uiso  ? N
   N6         1.0     0.557206     0.108801     0.593449    Uiso  ? N
   N7         1.0     0.557206     0.781736     0.593449    Uiso  ? N
   N8         1.0     0.891195     0.442791     0.593449    Uiso  ? N
   N9         1.0     0.891195     0.781735     0.593449    Uiso  ? N
   N10        1.0     0.999972     0.666652     0.404874    Uiso  ? N
   N11        1.0     0.333343     0.000023     0.404874    Uiso  ? N
   C19        1.0     0.222220     0.777776     0.425044    Uiso  ? C
   C20        1.0     0.222220     0.777776     0.489441    Uiso  ? C
   C21        1.0     0.999783     0.666557     0.509796    Uiso  ? C
   C22        1.0     0.333439     0.000213     0.509796    Uiso  ? C
   C23        1.0     0.333439     0.666557     0.509796    Uiso  ? C
   C24        1.0     0.999436     0.666384     0.574709    Uiso  ? C
   C25        1.0     0.333613     0.000560     0.574709    Uiso  ? C
   C26        1.0     0.333613     0.666384     0.574709    Uiso  ? C
   N12        1.0     0.222221     0.777776     0.594138    Uiso  ? N
   N13        1.0     0.333627     0.333480     0.405041    Uiso  ? N
   N14        1.0     0.666516     0.333480     0.405041    Uiso  ? N
   N15        1.0     0.666516     0.666369     0.405041    Uiso  ? N
   C27        1.0     0.555553     0.444443     0.425654    Uiso  ? C
   C28        1.0     0.555554     0.444443     0.490198    Uiso  ? C
   C29        1.0     0.332447     0.332889     0.510353    Uiso  ? C
   C30        1.0     0.667107     0.332889     0.510353    Uiso  ? C
   C31        1.0     0.667107     0.667550     0.510353    Uiso  ? C
   C32        1.0     0.326322     0.329827     0.574956    Uiso  ? C
   C33        1.0     0.670170     0.329827     0.574956    Uiso  ? C
   C34        1.0     0.670170     0.673675     0.574956    Uiso  ? C
   B1         1.0     0.555554     0.444443     0.599731    Uiso  ? B
   H1         1.0     0.555554     0.444443     0.647614    Uiso  ? H
   N16        1.0     0.333343     0.666652     0.404874    Uiso  ? N
   C35        1.0     0.888887     0.111109     0.424769    Uiso  ? C
   C36        1.0     0.888887     0.111109     0.489306    Uiso  ? C
   N17        1.0     0.888888     0.111109     0.593675    Uiso  ? N
