
#======================================================================
# CRYSTAL DATA
#----------------------------------------------------------------------
data_VESTA_phase_1

_chemical_name_common                  'Wien97 struct file generated by XCrySD'
_cell_length_a                         7.319500
_cell_length_b                         7.319500
_cell_length_c                         25.000000
_cell_angle_alpha                      90.000000
_cell_angle_beta                       90.000000
_cell_angle_gamma                      120.000000
_cell_volume                           1159.934503
_space_group_name_H-M_alt              'P 1'
_space_group_IT_number                 1

loop_
_space_group_symop_operation_xyz
   'x, y, z'

loop_
   _atom_site_label
   _atom_site_occupancy
   _atom_site_fract_x
   _atom_site_fract_y
   _atom_site_fract_z
   _atom_site_adp_type
   _atom_site_U_iso_or_equiv
   _atom_site_type_symbol
   N1         1.0     0.000071     0.999928     0.403362    Uiso  ? N
   N2         1.0     0.666518     0.999926     0.403362    Uiso  ? N
   C1         1.0     0.222413     0.111301     0.423884    Uiso  ? C
   C2         1.0     0.222381     0.111385     0.487707    Uiso  ? C
   C3         1.0     0.222380     0.444334     0.487707    Uiso  ? C
   C4         1.0     0.555667     0.111388     0.487707    Uiso  ? C
   C5         1.0     0.888614     0.444333     0.487707    Uiso  ? C
   C6         1.0     0.999919     0.000080     0.508312    Uiso  ? C
   C7         1.0     0.000345     0.999650     0.571945    Uiso  ? C
   N3         1.0     0.215894     0.106617     0.592333    Uiso  ? N
   N4         1.0     0.893384     0.784106     0.592333    Uiso  ? N
   N5         1.0     0.000070     0.333481     0.403362    Uiso  ? N
   C8         1.0     0.222411     0.444450     0.423884    Uiso  ? C
   C9         1.0     0.999917     0.333174     0.508312    Uiso  ? C
   C10        1.0     0.666823     0.000080     0.508312    Uiso  ? C
   C11        1.0     0.000347     0.334033     0.571945    Uiso  ? C
   N6         1.0     0.215893     0.442614     0.592333    Uiso  ? N
   N7         1.0     0.557385     0.784106     0.592333    Uiso  ? N
   N8         1.0     0.999858     0.666598     0.403409    Uiso  ? N
   C12        1.0     0.222220     0.777779     0.423790    Uiso  ? C
   C13        1.0     0.222221     0.777779     0.487591    Uiso  ? C
   C14        1.0     0.999969     0.666654     0.508544    Uiso  ? C
   C15        1.0     0.333345     0.000027     0.508545    Uiso  ? C
   C16        1.0     0.000797     0.667067     0.572098    Uiso  ? C
   C17        1.0     0.332933     0.999204     0.572098    Uiso  ? C
   N9         1.0     0.222221     0.777779     0.592553    Uiso  ? N
   N10        1.0     0.333401     0.000139     0.403409    Uiso  ? N
   C18        1.0     0.555549     0.111299     0.423885    Uiso  ? C
   N11        1.0     0.557385     0.106617     0.592333    Uiso  ? N
   N12        1.0     0.893382     0.442614     0.592332    Uiso  ? N
   N13        1.0     0.333741     0.333540     0.403603    Uiso  ? N
   N14        1.0     0.666460     0.333539     0.403603    Uiso  ? N
   N15        1.0     0.666461     0.666259     0.403603    Uiso  ? N
   C19        1.0     0.555553     0.444444     0.424344    Uiso  ? C
   C20        1.0     0.555554     0.444446     0.488812    Uiso  ? C
   C21        1.0     0.333044     0.333190     0.509282    Uiso  ? C
   C22        1.0     0.319992     0.326664     0.572819    Uiso  ? C
   C23        1.0     0.673336     0.680008     0.572819    Uiso  ? C
   P1         1.0     0.555552     0.444444     0.614549    Uiso  ? P
   H1         1.0     0.555635     0.444362     0.740940    Uiso  ? H
   N16        1.0     0.333399     0.666596     0.403409    Uiso  ? N
   C24        1.0     0.555551     0.777587     0.423884    Uiso  ? C
   C25        1.0     0.555668     0.777618     0.487707    Uiso  ? C
   C26        1.0     0.333344     0.666653     0.508544    Uiso  ? C
   C27        1.0     0.332932     0.667067     0.572098    Uiso  ? C
   C28        1.0     0.888888     0.111113     0.423720    Uiso  ? C
   C29        1.0     0.888887     0.111112     0.487351    Uiso  ? C
   C30        1.0     0.665969     0.999653     0.571946    Uiso  ? C
   N17        1.0     0.888887     0.111112     0.592679    Uiso  ? N
   C31        1.0     0.888698     0.444446     0.423884    Uiso  ? C
   C32        1.0     0.666809     0.333193     0.509283    Uiso  ? C
   C33        1.0     0.673334     0.326664     0.572819    Uiso  ? C
   C34        1.0     0.888701     0.777589     0.423884    Uiso  ? C
   C35        1.0     0.888614     0.777618     0.487708    Uiso  ? C
   C36        1.0     0.666808     0.666958     0.509284    Uiso  ? C
