
#======================================================================
# CRYSTAL DATA
#----------------------------------------------------------------------
data_VESTA_phase_1

_chemical_name_common                  'Wien97 struct file generated by XCrySD'
_cell_length_a                         7.269300
_cell_length_b                         7.269300
_cell_length_c                         25.000000
_cell_angle_alpha                      90.000000
_cell_angle_beta                       90.000000
_cell_angle_gamma                      120.000000
_cell_volume                           1144.078647
_space_group_name_H-M_alt              'P 1'
_space_group_IT_number                 1

loop_
_space_group_symop_operation_xyz
   'x, y, z'

loop_
   _atom_site_label
   _atom_site_occupancy
   _atom_site_fract_x
   _atom_site_fract_y
   _atom_site_fract_z
   _atom_site_adp_type
   _atom_site_U_iso_or_equiv
   _atom_site_type_symbol
   N1         1.0     0.000008     0.000005     0.403198    Uiso  ? N
   C1         1.0     0.222226     0.111113     0.423638    Uiso  ? C
   C2         1.0     0.222226     0.111110     0.487548    Uiso  ? C
   C3         1.0     0.000007     0.000004     0.508524    Uiso  ? C
   C4         1.0     0.000005     0.000005     0.572444    Uiso  ? C
   N2         1.0     0.222236     0.111127     0.592885    Uiso  ? N
   N3         1.0     0.000005     0.333338     0.403196    Uiso  ? N
   C5         1.0     0.222225     0.444449     0.423636    Uiso  ? C
   C6         1.0     0.222226     0.444448     0.487545    Uiso  ? C
   C7         1.0     0.999994     0.333332     0.508515    Uiso  ? C
   C8         1.0     0.999991     0.333329     0.572429    Uiso  ? C
   N4         1.0     0.222217     0.444442     0.592830    Uiso  ? N
   N5         1.0     0.000008     0.666675     0.403197    Uiso  ? N
   C9         1.0     0.222227     0.777787     0.423638    Uiso  ? C
   C10        1.0     0.222226     0.777786     0.487549    Uiso  ? C
   C11        1.0     0.000006     0.666673     0.508524    Uiso  ? C
   C12        1.0     0.000006     0.666668     0.572443    Uiso  ? C
   N6         1.0     0.222235     0.777775     0.592885    Uiso  ? N
   N7         1.0     0.333337     0.000004     0.403198    Uiso  ? N
   C13        1.0     0.555560     0.111116     0.423638    Uiso  ? C
   C14        1.0     0.555560     0.111115     0.487547    Uiso  ? C
   C15        1.0     0.333338     0.000004     0.508523    Uiso  ? C
   C16        1.0     0.333342     0.000004     0.572444    Uiso  ? C
   N8         1.0     0.555563     0.111116     0.592879    Uiso  ? N
   N9         1.0     0.333338     0.333336     0.403196    Uiso  ? N
   C17        1.0     0.555563     0.444451     0.423635    Uiso  ? C
   C18        1.0     0.555565     0.444448     0.487544    Uiso  ? C
   C19        1.0     0.333337     0.333331     0.508510    Uiso  ? C
   C20        1.0     0.333336     0.333327     0.572428    Uiso  ? C
   N10        1.0     0.555571     0.444442     0.592830    Uiso  ? N
   N11        1.0     0.333338     0.666674     0.403196    Uiso  ? N
   C21        1.0     0.555564     0.777787     0.423635    Uiso  ? C
   C22        1.0     0.555565     0.777789     0.487545    Uiso  ? C
   C23        1.0     0.333337     0.666676     0.508510    Uiso  ? C
   C24        1.0     0.333338     0.666674     0.572428    Uiso  ? C
   N12        1.0     0.555571     0.777795     0.592831    Uiso  ? N
   N13        1.0     0.666674     0.000008     0.403196    Uiso  ? N
   C25        1.0     0.888897     0.111115     0.423638    Uiso  ? C
   C26        1.0     0.888898     0.111117     0.487547    Uiso  ? C
   C27        1.0     0.666679     0.000017     0.508515    Uiso  ? C
   C28        1.0     0.666683     0.000020     0.572429    Uiso  ? C
   N14        1.0     0.888897     0.111115     0.592879    Uiso  ? N
   N15        1.0     0.666673     0.333338     0.403196    Uiso  ? N
   C29        1.0     0.888896     0.444452     0.423637    Uiso  ? C
   C30        1.0     0.888897     0.444452     0.487546    Uiso  ? C
   C31        1.0     0.666680     0.333333     0.508515    Uiso  ? C
   C32        1.0     0.666683     0.333331     0.572429    Uiso  ? C
   N16        1.0     0.888897     0.444449     0.592879    Uiso  ? N
   N17        1.0     0.666677     0.666675     0.403196    Uiso  ? N
   C33        1.0     0.888899     0.777786     0.423638    Uiso  ? C
   C34        1.0     0.888903     0.777787     0.487548    Uiso  ? C
   C35        1.0     0.666681     0.666677     0.508510    Uiso  ? C
   C36        1.0     0.666683     0.666674     0.572428    Uiso  ? C
   N18        1.0     0.888884     0.777775     0.592884    Uiso  ? N
   H1         1.0     0.443983     0.555205     0.701051    Uiso  ? H
