
#======================================================================
# CRYSTAL DATA
#----------------------------------------------------------------------
data_VESTA_phase_1

_chemical_name_common                  'Wien97 struct file generated by XCrySD'
_cell_length_a                         7.334701
_cell_length_b                         7.334701
_cell_length_c                         25.000000
_cell_angle_alpha                      90.000000
_cell_angle_beta                       90.000000
_cell_angle_gamma                      120.000000
_cell_volume                           1164.757244
_space_group_name_H-M_alt              'P 1'
_space_group_IT_number                 1

loop_
_space_group_symop_operation_xyz
   'x, y, z'

loop_
   _atom_site_label
   _atom_site_occupancy
   _atom_site_fract_x
   _atom_site_fract_y
   _atom_site_fract_z
   _atom_site_adp_type
   _atom_site_U_iso_or_equiv
   _atom_site_type_symbol
   N1         1.0     0.000110     0.000016     0.404653    Uiso  ? N
   N2         1.0     0.000110     0.333477     0.404653    Uiso  ? N
   N3         1.0     0.666649     0.000016     0.404653    Uiso  ? N
   C1         1.0     0.222402     0.111256     0.425197    Uiso  ? C
   C2         1.0     0.222403     0.444530     0.425197    Uiso  ? C
   C3         1.0     0.555596     0.111256     0.425197    Uiso  ? C
   C4         1.0     0.555596     0.777723     0.425197    Uiso  ? C
   C5         1.0     0.888869     0.444530     0.425197    Uiso  ? C
   C6         1.0     0.888869     0.777723     0.425197    Uiso  ? C
   C7         1.0     0.222261     0.111307     0.488951    Uiso  ? C
   C8         1.0     0.222261     0.444338     0.488951    Uiso  ? C
   C9         1.0     0.555788     0.111307     0.488951    Uiso  ? C
   C10        1.0     0.555788     0.777865     0.488951    Uiso  ? C
   C11        1.0     0.888819     0.444338     0.488951    Uiso  ? C
   C12        1.0     0.888819     0.777865     0.488951    Uiso  ? C
   C13        1.0     0.000034     0.000091     0.509680    Uiso  ? C
   C14        1.0     0.000034     0.333326     0.509680    Uiso  ? C
   C15        1.0     0.666799     0.000091     0.509680    Uiso  ? C
   C16        1.0     0.000714     0.999411     0.573405    Uiso  ? C
   C17        1.0     0.000714     0.334686     0.573405    Uiso  ? C
   C18        1.0     0.665440     0.999411     0.573405    Uiso  ? C
   N4         1.0     0.215053     0.105979     0.593721    Uiso  ? N
   N5         1.0     0.215053     0.442457     0.593721    Uiso  ? N
   N6         1.0     0.557669     0.105979     0.593721    Uiso  ? N
   N7         1.0     0.557669     0.785073     0.593721    Uiso  ? N
   N8         1.0     0.894147     0.442457     0.593721    Uiso  ? N
   N9         1.0     0.894147     0.785073     0.593721    Uiso  ? N
   N10        1.0     0.999973     0.666678     0.404711    Uiso  ? N
   N11        1.0     0.333447     0.000153     0.404711    Uiso  ? N
   N12        1.0     0.333447     0.666678     0.404711    Uiso  ? N
   C19        1.0     0.222289     0.777837     0.425115    Uiso  ? C
   C20        1.0     0.222289     0.777837     0.488937    Uiso  ? C
   C21        1.0     0.999919     0.666651     0.509861    Uiso  ? C
   C22        1.0     0.333474     0.000207     0.509861    Uiso  ? C
   C23        1.0     0.333474     0.666651     0.509861    Uiso  ? C
   C24        1.0     0.000978     0.667181     0.573380    Uiso  ? C
   C25        1.0     0.332945     0.999148     0.573380    Uiso  ? C
   C26        1.0     0.332945     0.667181     0.573380    Uiso  ? C
   N13        1.0     0.222290     0.777837     0.593813    Uiso  ? N
   N14        1.0     0.333865     0.333624     0.404982    Uiso  ? N
   N15        1.0     0.666501     0.333624     0.404982    Uiso  ? N
   N16        1.0     0.666501     0.666261     0.404982    Uiso  ? N
   C27        1.0     0.555623     0.444503     0.425820    Uiso  ? C
   C28        1.0     0.555623     0.444503     0.490365    Uiso  ? C
   C29        1.0     0.332115     0.332749     0.510490    Uiso  ? C
   C30        1.0     0.667377     0.332749     0.510490    Uiso  ? C
   C31        1.0     0.667376     0.668011     0.510490    Uiso  ? C
   C32        1.0     0.315480     0.324431     0.573699    Uiso  ? C
   C33        1.0     0.675694     0.324432     0.573699    Uiso  ? C
   C34        1.0     0.675694     0.684646     0.573699    Uiso  ? C
   Si1        1.0     0.555623     0.444503     0.612593    Uiso  ? Si
   H1         1.0     0.555623     0.444501     0.671143    Uiso  ? H
   C35        1.0     0.888956     0.111170     0.425081    Uiso  ? C
   C36        1.0     0.888956     0.111170     0.488759    Uiso  ? C
   N17        1.0     0.888956     0.111170     0.594178    Uiso  ? N
