
#======================================================================
# CRYSTAL DATA
#----------------------------------------------------------------------
data_VESTA_phase_1

_chemical_name_common                  'Wien97 struct file generated by XCrySD'
_cell_length_a                         7.319293
_cell_length_b                         7.319291
_cell_length_c                         25.000002
_cell_angle_alpha                      90.000000
_cell_angle_beta                       90.000000
_cell_angle_gamma                      120.407333
_cell_volume                           1155.078752
_space_group_name_H-M_alt              'P 1'
_space_group_IT_number                 1

loop_
_space_group_symop_operation_xyz
   'x, y, z'

loop_
   _atom_site_label
   _atom_site_occupancy
   _atom_site_fract_x
   _atom_site_fract_y
   _atom_site_fract_z
   _atom_site_adp_type
   _atom_site_U_iso_or_equiv
   _atom_site_type_symbol
   N1         1.0     0.000988     0.999012     0.405470    Uiso  ? N
   C1         1.0     0.223198     0.110812     0.425890    Uiso  ? C
   C2         1.0     0.889185     0.776798     0.425890    Uiso  ? C
   C3         1.0     0.223536     0.111113     0.490109    Uiso  ? C
   C4         1.0     0.888884     0.776461     0.490109    Uiso  ? C
   C5         1.0     0.000801     0.999199     0.510873    Uiso  ? C
   C6         1.0     0.000102     0.999898     0.574920    Uiso  ? C
   N2         1.0     0.223745     0.113103     0.595421    Uiso  ? N
   N3         1.0     0.886894     0.776252     0.595421    Uiso  ? N
   N4         1.0     0.001531     0.332377     0.405044    Uiso  ? N
   N5         1.0     0.667620     0.998469     0.405044    Uiso  ? N
   C7         1.0     0.223515     0.443746     0.425710    Uiso  ? C
   C8         1.0     0.556252     0.776482     0.425710    Uiso  ? C
   C9         1.0     0.224033     0.444017     0.489640    Uiso  ? C
   C10        1.0     0.555980     0.775964     0.489640    Uiso  ? C
   C11        1.0     0.001669     0.332676     0.510157    Uiso  ? C
   C12        1.0     0.667321     0.998331     0.510157    Uiso  ? C
   C13        1.0     0.001678     0.334392     0.573984    Uiso  ? C
   C14        1.0     0.665605     0.998322     0.573984    Uiso  ? C
   N6         1.0     0.216667     0.443916     0.594571    Uiso  ? N
   N7         1.0     0.556081     0.783330     0.594571    Uiso  ? N
   N8         1.0     0.000784     0.666345     0.405126    Uiso  ? N
   N9         1.0     0.333651     0.999217     0.405126    Uiso  ? N
   C15        1.0     0.222697     0.777300     0.425626    Uiso  ? C
   C16        1.0     0.222519     0.777478     0.489538    Uiso  ? C
   C17        1.0     0.999914     0.665633     0.510414    Uiso  ? C
   C18        1.0     0.334364     0.000086     0.510414    Uiso  ? C
   C19        1.0     0.997946     0.664406     0.574117    Uiso  ? C
   C20        1.0     0.335591     0.002054     0.574117    Uiso  ? C
   N10        1.0     0.221386     0.778611     0.594642    Uiso  ? N
   C21        1.0     0.555998     0.109503     0.425394    Uiso  ? C
   C22        1.0     0.890494     0.443999     0.425394    Uiso  ? C
   C23        1.0     0.556224     0.108426     0.488607    Uiso  ? C
   C24        1.0     0.891571     0.443773     0.488607    Uiso  ? C
   N11        1.0     0.559210     0.110060     0.593400    Uiso  ? N
   N12        1.0     0.889937     0.440787     0.593400    Uiso  ? N
   N13        1.0     0.334648     0.332637     0.405444    Uiso  ? N
   N14        1.0     0.667360     0.665349     0.405444    Uiso  ? N
   C25        1.0     0.556532     0.443465     0.426019    Uiso  ? C
   C26        1.0     0.557235     0.442762     0.490305    Uiso  ? C
   C27        1.0     0.336019     0.334328     0.511310    Uiso  ? C
   C28        1.0     0.665669     0.663978     0.511310    Uiso  ? C
   C29        1.0     0.329355     0.337588     0.575361    Uiso  ? C
   C30        1.0     0.662409     0.670642     0.575361    Uiso  ? C
   N15        1.0     0.537020     0.462977     0.599040    Uiso  ? N
   N16        1.0     0.334170     0.665827     0.405277    Uiso  ? N
   C31        1.0     0.333403     0.666594     0.510489    Uiso  ? C
   C32        1.0     0.331753     0.668244     0.574285    Uiso  ? C
   C33        1.0     0.889896     0.110101     0.425647    Uiso  ? C
   C34        1.0     0.890016     0.109981     0.489459    Uiso  ? C
   N17        1.0     0.889457     0.110540     0.594902    Uiso  ? N
   N18        1.0     0.667558     0.332439     0.405185    Uiso  ? N
   C35        1.0     0.670474     0.329523     0.509959    Uiso  ? C
   C36        1.0     0.686518     0.313478     0.569059    Uiso  ? C
   H1         1.0     0.528417     0.471580     0.639908    Uiso  ? H
