
#======================================================================
# CRYSTAL DATA
#----------------------------------------------------------------------
data_VESTA_phase_1

_chemical_name_common                  'Wien97 struct file generated by XCrySD'
_cell_length_a                         7.357587
_cell_length_b                         7.357590
_cell_length_c                         25.000004
_cell_angle_alpha                      90.000000
_cell_angle_beta                       90.000000
_cell_angle_gamma                      120.440956
_cell_volume                           1166.795641
_space_group_name_H-M_alt              'P 1'
_space_group_IT_number                 1

loop_
_space_group_symop_operation_xyz
   'x, y, z'

loop_
   _atom_site_label
   _atom_site_occupancy
   _atom_site_fract_x
   _atom_site_fract_y
   _atom_site_fract_z
   _atom_site_adp_type
   _atom_site_U_iso_or_equiv
   _atom_site_type_symbol
   N1         1.0     0.000870     0.998451     0.406918    Uiso  ? N
   N2         1.0     0.334884     0.332465     0.406918    Uiso  ? N
   N3         1.0     0.335007     0.335245     0.593853    Uiso  ? N
   N4         1.0     0.998090     0.998328     0.593853    Uiso  ? N
   C1         1.0     0.223087     0.110249     0.489729    Uiso  ? C
   C2         1.0     0.223130     0.110205     0.427164    Uiso  ? C
   C3         1.0     0.111571     0.221763     0.573378    Uiso  ? C
   C4         1.0     0.112383     0.220950     0.510753    Uiso  ? C
   N5         1.0     0.002285     0.331050     0.406575    Uiso  ? N
   N6         1.0     0.327001     0.665857     0.592518    Uiso  ? N
   N7         1.0     0.667478     1.006334     0.592518    Uiso  ? N
   C5         1.0     0.224622     0.443662     0.489995    Uiso  ? C
   C6         1.0     0.889672     0.108712     0.489996    Uiso  ? C
   C7         1.0     0.224159     0.443268     0.427212    Uiso  ? C
   C8         1.0     0.890067     0.109177     0.427212    Uiso  ? C
   C9         1.0     0.112201     0.555923     0.572278    Uiso  ? C
   C10        1.0     0.777412     0.221133     0.572278    Uiso  ? C
   C11        1.0     0.112433     0.554101     0.509731    Uiso  ? C
   C12        1.0     0.779233     0.220902     0.509731    Uiso  ? C
   N8         1.0     0.001145     0.665794     0.406601    Uiso  ? N
   N9         1.0     0.667540     0.332190     0.406601    Uiso  ? N
   N10        1.0     0.332713     1.000622     0.592995    Uiso  ? N
   C13        1.0     0.222711     0.776922     0.489419    Uiso  ? C
   C14        1.0     0.556412     0.110623     0.489419    Uiso  ? C
   C15        1.0     0.222915     0.777078     0.427015    Uiso  ? C
   C16        1.0     0.556257     0.110420     0.427015    Uiso  ? C
   C17        1.0     0.109128     0.886482     0.572780    Uiso  ? C
   C18        1.0     0.446853     0.224208     0.572780    Uiso  ? C
   C19        1.0     0.111261     0.887898     0.510418    Uiso  ? C
   C20        1.0     0.445436     0.222072     0.510418    Uiso  ? C
   N11        1.0     0.334193     0.999142     0.406766    Uiso  ? N
   N12        1.0     0.670854     0.332321     0.591786    Uiso  ? N
   N13        1.0     1.001015     0.662482     0.591786    Uiso  ? N
   N14        1.0     0.646351     0.686984     0.598503    Uiso  ? N
   C21        1.0     0.557686     0.444081     0.489893    Uiso  ? C
   C22        1.0     0.556641     0.443757     0.427247    Uiso  ? C
   C23        1.0     0.889578     0.776695     0.427247    Uiso  ? C
   C24        1.0     0.440831     0.560275     0.574077    Uiso  ? C
   C25        1.0     0.773060     0.892503     0.574077    Uiso  ? C
   C26        1.0     0.448135     0.556660     0.511148    Uiso  ? C
   C27        1.0     0.776675     0.885200     0.511148    Uiso  ? C
   N15        1.0     0.334436     0.665627     0.407005    Uiso  ? N
   N16        1.0     0.667708     0.998899     0.407005    Uiso  ? N
   C28        1.0     0.556208     0.777127     0.489823    Uiso  ? C
   C29        1.0     0.556391     0.776945     0.427261    Uiso  ? C
   C30        1.0     0.442710     0.890624     0.572593    Uiso  ? C
   C31        1.0     0.444699     0.888637     0.510247    Uiso  ? C
   N17        1.0     1.000753     0.332582     0.593040    Uiso  ? N
   C32        1.0     0.891433     0.441901     0.487876    Uiso  ? C
   C33        1.0     0.890774     0.442561     0.426290    Uiso  ? C
   C34        1.0     0.795986     0.537349     0.568658    Uiso  ? C
   C35        1.0     0.781406     0.551929     0.509566    Uiso  ? C
   N18        1.0     0.667534     0.665801     0.407000    Uiso  ? N
   C36        1.0     0.889256     0.775649     0.489893    Uiso  ? C
   H1         1.0     0.634443     0.698891     0.639179    Uiso  ? H
