
#======================================================================
# CRYSTAL DATA
#----------------------------------------------------------------------
data_VESTA_phase_1

_chemical_name_common                  'Wien97 struct file generated by XCrySD'
_cell_length_a                         7.354500
_cell_length_b                         7.354498
_cell_length_c                         24.999998
_cell_angle_alpha                      90.000000
_cell_angle_beta                       90.000000
_cell_angle_gamma                      120.000015
_cell_volume                           1171.053431
_space_group_name_H-M_alt              'P 1'
_space_group_IT_number                 1

loop_
_space_group_symop_operation_xyz
   'x, y, z'

loop_
   _atom_site_label
   _atom_site_occupancy
   _atom_site_fract_x
   _atom_site_fract_y
   _atom_site_fract_z
   _atom_site_adp_type
   _atom_site_U_iso_or_equiv
   _atom_site_type_symbol
   N1         1.0     0.999832     0.999638     0.405165    Uiso  ? N
   N2         1.0     0.999833     0.666864     0.405165    Uiso  ? N
   N3         1.0     0.333696     0.333501     0.405165    Uiso  ? N
   N4         1.0     0.666469     0.999637     0.405165    Uiso  ? N
   N5         1.0     0.666469     0.333501     0.405165    Uiso  ? N
   N6         1.0     0.326901     0.328761     0.590624    Uiso  ? N
   N7         1.0     1.004575     1.006436     0.590625    Uiso  ? N
   C1         1.0     0.222238     0.111096     0.487633    Uiso  ? C
   C2         1.0     0.222317     0.111016     0.425251    Uiso  ? C
   C3         1.0     0.111469     0.221867     0.570318    Uiso  ? C
   C4         1.0     0.111015     0.222320     0.508069    Uiso  ? C
   N8         1.0     0.999999     0.333334     0.405102    Uiso  ? N
   N9         1.0     0.326901     0.664809     0.590625    Uiso  ? N
   N10        1.0     0.668527     1.006437     0.590625    Uiso  ? N
   C5         1.0     0.222619     0.444645     0.487543    Uiso  ? C
   C6         1.0     0.222580     0.444625     0.425295    Uiso  ? C
   C7         1.0     0.111469     0.556271     0.570317    Uiso  ? C
   C8         1.0     0.777064     0.221868     0.570317    Uiso  ? C
   C9         1.0     0.111016     0.555366     0.508068    Uiso  ? C
   C10        1.0     0.777969     0.222319     0.508068    Uiso  ? C
   N11        1.0     0.333334     1.000003     0.591013    Uiso  ? N
   C11        1.0     0.222239     0.777811     0.487633    Uiso  ? C
   C12        1.0     0.222318     0.777971     0.425251    Uiso  ? C
   C13        1.0     0.112118     0.889395     0.570695    Uiso  ? C
   C14        1.0     0.443942     0.221220     0.570695    Uiso  ? C
   C15        1.0     0.111117     0.888894     0.508498    Uiso  ? C
   C16        1.0     0.444441     0.222217     0.508498    Uiso  ? C
   N12        1.0     0.333332     0.000001     0.404937    Uiso  ? N
   N13        1.0     0.668528     0.328763     0.590625    Uiso  ? N
   N14        1.0     1.004575     0.664810     0.590625    Uiso  ? N
   C17        1.0     0.555520     0.111095     0.487633    Uiso  ? C
   C18        1.0     0.555362     0.111016     0.425251    Uiso  ? C
   P1         1.0     0.666667     0.666670     0.613464    Uiso  ? P
   H1         1.0     0.666713     0.666618     0.739111    Uiso  ? H
   C19        1.0     0.555789     0.444913     0.488351    Uiso  ? C
   C20        1.0     0.888421     0.777545     0.488350    Uiso  ? C
   C21        1.0     0.555675     0.444683     0.425649    Uiso  ? C
   C22        1.0     0.555672     0.777660     0.425649    Uiso  ? C
   C23        1.0     0.888650     0.777660     0.425649    Uiso  ? C
   C24        1.0     0.431743     0.549207     0.571657    Uiso  ? C
   C25        1.0     0.784130     0.901595     0.571657    Uiso  ? C
   C26        1.0     0.444507     0.555589     0.509189    Uiso  ? C
   C27        1.0     0.777746     0.888829     0.509189    Uiso  ? C
   N15        1.0     0.333696     0.666863     0.405165    Uiso  ? N
   C28        1.0     0.555789     0.777545     0.488351    Uiso  ? C
   C29        1.0     0.443942     0.889395     0.570695    Uiso  ? C
   C30        1.0     0.444441     0.888894     0.508497    Uiso  ? C
   N16        1.0     1.000001     0.333335     0.590808    Uiso  ? N
   C31        1.0     0.888689     0.110715     0.487543    Uiso  ? C
   C32        1.0     0.888708     0.110753     0.425295    Uiso  ? C
   C33        1.0     0.888708     0.444626     0.425295    Uiso  ? C
   C34        1.0     0.888691     0.444646     0.487542    Uiso  ? C
   C35        1.0     0.784132     0.549208     0.571657    Uiso  ? C
   C36        1.0     0.777746     0.555589     0.509189    Uiso  ? C
   N17        1.0     0.666666     0.666667     0.405409    Uiso  ? N
