
#======================================================================
# CRYSTAL DATA
#----------------------------------------------------------------------
data_VESTA_phase_1

_chemical_name_common                  'Wien97 struct file generated by XCrySD'
_cell_length_a                         7.302900
_cell_length_b                         7.302898
_cell_length_c                         25.000004
_cell_angle_alpha                      90.000000
_cell_angle_beta                       90.000000
_cell_angle_gamma                      120.000015
_cell_volume                           1154.678860
_space_group_name_H-M_alt              'P 1'
_space_group_IT_number                 1

loop_
_space_group_symop_operation_xyz
   'x, y, z'

loop_
   _atom_site_label
   _atom_site_occupancy
   _atom_site_fract_x
   _atom_site_fract_y
   _atom_site_fract_z
   _atom_site_adp_type
   _atom_site_U_iso_or_equiv
   _atom_site_type_symbol
   N1         1.0     0.000000     0.000000     0.405192    Uiso  ? N
   N2         1.0     0.333329     0.333327     0.591523    Uiso  ? N
   C1         1.0     0.222219     0.111108     0.487978    Uiso  ? C
   C2         1.0     0.222220     0.111109     0.425455    Uiso  ? C
   C3         1.0     0.111100     0.222217     0.571299    Uiso  ? C
   C4         1.0     0.777785     0.888901     0.571299    Uiso  ? C
   C5         1.0     0.111100     0.222218     0.508772    Uiso  ? C
   N3         1.0     0.999997     0.333332     0.405188    Uiso  ? N
   N4         1.0     0.333329     0.666673     0.591523    Uiso  ? N
   C6         1.0     0.222213     0.444441     0.487974    Uiso  ? C
   C7         1.0     0.222216     0.444442     0.425451    Uiso  ? C
   C8         1.0     0.111099     0.555552     0.571298    Uiso  ? C
   C9         1.0     0.111099     0.555552     0.508771    Uiso  ? C
   N5         1.0     1.000000     0.666669     0.405192    Uiso  ? N
   N6         1.0     0.333329     1.000002     0.591574    Uiso  ? N
   C10        1.0     0.222220     0.777781     0.487978    Uiso  ? C
   C11        1.0     0.222220     0.777782     0.425455    Uiso  ? C
   C12        1.0     0.111110     0.888891     0.571309    Uiso  ? C
   C13        1.0     0.111110     0.888891     0.508778    Uiso  ? C
   N7         1.0     0.333332     0.000000     0.405192    Uiso  ? N
   N8         1.0     0.666659     0.333343     0.591572    Uiso  ? N
   C14        1.0     0.555560     0.111113     0.487975    Uiso  ? C
   C15        1.0     0.555559     0.111114     0.425453    Uiso  ? C
   C16        1.0     0.444449     0.222218     0.571298    Uiso  ? C
   C17        1.0     0.444450     0.222217     0.508771    Uiso  ? C
   N9         1.0     0.333331     0.333331     0.405191    Uiso  ? N
   N10        1.0     0.666675     0.666673     0.591523    Uiso  ? N
   C18        1.0     0.555560     0.444441     0.487974    Uiso  ? C
   C19        1.0     0.555558     0.444444     0.425452    Uiso  ? C
   C20        1.0     0.444444     0.555558     0.571277    Uiso  ? C
   C21        1.0     0.444444     0.555557     0.508761    Uiso  ? C
   N11        1.0     0.333332     0.666669     0.405191    Uiso  ? N
   N12        1.0     0.666659     0.999988     0.591571    Uiso  ? N
   C22        1.0     0.555561     0.777789     0.487974    Uiso  ? C
   C23        1.0     0.555560     0.777785     0.425451    Uiso  ? C
   C24        1.0     0.444450     0.888903     0.571298    Uiso  ? C
   C25        1.0     0.444450     0.888902     0.508771    Uiso  ? C
   N13        1.0     0.666669     0.000003     0.405188    Uiso  ? N
   N14        1.0     1.000015     0.333343     0.591571    Uiso  ? N
   C26        1.0     0.888888     0.111114     0.487975    Uiso  ? C
   C27        1.0     0.888887     0.111115     0.425453    Uiso  ? C
   C28        1.0     0.777778     0.222224     0.571307    Uiso  ? C
   C29        1.0     0.777778     0.222224     0.508777    Uiso  ? C
   N15        1.0     0.666667     0.333334     0.405189    Uiso  ? N
   N16        1.0     1.000002     0.666672     0.591574    Uiso  ? N
   C30        1.0     0.888888     0.444442     0.487975    Uiso  ? C
   C31        1.0     0.888887     0.444443     0.425453    Uiso  ? C
   C32        1.0     0.777784     0.555553     0.571298    Uiso  ? C
   C33        1.0     0.777784     0.555552     0.508771    Uiso  ? C
   N17        1.0     0.666670     0.666671     0.405191    Uiso  ? N
   N18        1.0     1.000003     1.000001     0.591574    Uiso  ? N
   C34        1.0     0.888893     0.777782     0.487978    Uiso  ? C
   C35        1.0     0.888893     0.777782     0.425455    Uiso  ? C
   C36        1.0     0.777784     0.888902     0.508772    Uiso  ? C
   H1         1.0     0.444489     0.555513     0.700695    Uiso  ? H
