
#======================================================================
# CRYSTAL DATA
#----------------------------------------------------------------------
data_VESTA_phase_1

_chemical_name_common                  'Wien97 struct file generated by XCrySD'
_cell_length_a                         7.339600
_cell_length_b                         7.339598
_cell_length_c                         25.000000
_cell_angle_alpha                      90.000000
_cell_angle_beta                       90.000000
_cell_angle_gamma                      120.000015
_cell_volume                           1166.313220
_space_group_name_H-M_alt              'P 1'
_space_group_IT_number                 1

loop_
_space_group_symop_operation_xyz
   'x, y, z'

loop_
   _atom_site_label
   _atom_site_occupancy
   _atom_site_fract_x
   _atom_site_fract_y
   _atom_site_fract_z
   _atom_site_adp_type
   _atom_site_U_iso_or_equiv
   _atom_site_type_symbol
   N1         1.0     0.999919     0.999737     0.406750    Uiso  ? N
   N2         1.0     0.999920     0.666848     0.406749    Uiso  ? N
   N3         1.0     0.333593     0.333410     0.406749    Uiso  ? N
   N4         1.0     0.333593     0.666848     0.406749    Uiso  ? N
   N5         1.0     0.666482     0.999737     0.406749    Uiso  ? N
   N6         1.0     0.666482     0.333410     0.406749    Uiso  ? N
   N7         1.0     0.329214     0.330875     0.591670    Uiso  ? N
   N8         1.0     0.329214     0.665004     0.591670    Uiso  ? N
   N9         1.0     0.668326     0.330875     0.591671    Uiso  ? N
   N10        1.0     0.668326     1.004115     0.591670    Uiso  ? N
   N11        1.0     1.002454     0.665004     0.591670    Uiso  ? N
   N12        1.0     1.002454     1.004115     0.591670    Uiso  ? N
   C1         1.0     0.222281     0.111048     0.489425    Uiso  ? C
   C2         1.0     0.222282     0.777899     0.489425    Uiso  ? C
   C3         1.0     0.555431     0.111048     0.489425    Uiso  ? C
   C4         1.0     0.222290     0.111039     0.426626    Uiso  ? C
   C5         1.0     0.222290     0.777916     0.426626    Uiso  ? C
   C6         1.0     0.555414     0.111039     0.426626    Uiso  ? C
   C7         1.0     0.111949     0.221380     0.572620    Uiso  ? C
   C8         1.0     0.111949     0.557233     0.572620    Uiso  ? C
   C9         1.0     0.776096     0.221380     0.572620    Uiso  ? C
   C10        1.0     0.111049     0.222280     0.509262    Uiso  ? C
   C11        1.0     0.111050     0.555435     0.509261    Uiso  ? C
   C12        1.0     0.777895     0.222280     0.509262    Uiso  ? C
   N13        1.0     0.999998     0.333331     0.406458    Uiso  ? N
   C13        1.0     0.222446     0.444556     0.489212    Uiso  ? C
   C14        1.0     0.888774     0.110884     0.489212    Uiso  ? C
   C15        1.0     0.888774     0.444556     0.489212    Uiso  ? C
   C16        1.0     0.222196     0.444431     0.426437    Uiso  ? C
   C17        1.0     0.888899     0.111134     0.426438    Uiso  ? C
   C18        1.0     0.888899     0.444431     0.426437    Uiso  ? C
   N14        1.0     0.333331     0.999998     0.592629    Uiso  ? N
   C19        1.0     0.110811     0.888738     0.573129    Uiso  ? C
   C20        1.0     0.444591     0.222518     0.573129    Uiso  ? C
   C21        1.0     0.444591     0.888738     0.573129    Uiso  ? C
   C22        1.0     0.110964     0.888815     0.509864    Uiso  ? C
   C23        1.0     0.444515     0.222365     0.509864    Uiso  ? C
   C24        1.0     0.444515     0.888815     0.509864    Uiso  ? C
   N15        1.0     0.333331     0.999998     0.406545    Uiso  ? N
   B1         1.0     0.666664     0.666664     0.598408    Uiso  ? B
   H1         1.0     0.666665     0.666665     0.646327    Uiso  ? H
   C25        1.0     0.555779     0.444894     0.489946    Uiso  ? C
   C26        1.0     0.555779     0.777550     0.489946    Uiso  ? C
   C27        1.0     0.888436     0.777551     0.489946    Uiso  ? C
   C28        1.0     0.555644     0.444623     0.427052    Uiso  ? C
   C29        1.0     0.555644     0.777686     0.427052    Uiso  ? C
   C30        1.0     0.888706     0.777686     0.427052    Uiso  ? C
   C31        1.0     0.437976     0.552320     0.573637    Uiso  ? C
   C32        1.0     0.781009     0.552320     0.573638    Uiso  ? C
   C33        1.0     0.781009     0.895353     0.573637    Uiso  ? C
   C34        1.0     0.443492     0.555078     0.510250    Uiso  ? C
   C35        1.0     0.778251     0.555078     0.510250    Uiso  ? C
   C36        1.0     0.778251     0.889838     0.510250    Uiso  ? C
   N16        1.0     0.999998     0.333331     0.591726    Uiso  ? N
   N17        1.0     0.666665     0.666665     0.407008    Uiso  ? N
