
#======================================================================
# CRYSTAL DATA
#----------------------------------------------------------------------
data_VESTA_phase_1

_chemical_name_common                  'Wien97 struct file generated by XCrySD'
_cell_length_a                         7.370500
_cell_length_b                         7.370498
_cell_length_c                         24.999998
_cell_angle_alpha                      90.000000
_cell_angle_beta                       90.000000
_cell_angle_gamma                      120.000015
_cell_volume                           1176.154253
_space_group_name_H-M_alt              'P 1'
_space_group_IT_number                 1

loop_
_space_group_symop_operation_xyz
   'x, y, z'

loop_
   _atom_site_label
   _atom_site_occupancy
   _atom_site_fract_x
   _atom_site_fract_y
   _atom_site_fract_z
   _atom_site_adp_type
   _atom_site_U_iso_or_equiv
   _atom_site_type_symbol
   N1         1.0     0.999878     0.999607     0.406489    Uiso  ? N
   N2         1.0     0.999878     0.666941     0.406489    Uiso  ? N
   N3         1.0     0.333727     0.666941     0.406489    Uiso  ? N
   N4         1.0     0.666397     0.999606     0.406489    Uiso  ? N
   N5         1.0     0.325744     0.327900     0.592018    Uiso  ? N
   N6         1.0     0.325744     0.664516     0.592018    Uiso  ? N
   N7         1.0     0.668826     0.327899     0.592018    Uiso  ? N
   N8         1.0     0.668826     1.007599     0.592018    Uiso  ? N
   N9         1.0     1.005442     0.664515     0.592018    Uiso  ? N
   N10        1.0     1.005443     1.007599     0.592018    Uiso  ? N
   C1         1.0     0.222246     0.111089     0.488977    Uiso  ? C
   C2         1.0     0.222331     0.111002     0.426593    Uiso  ? C
   C3         1.0     0.111701     0.221638     0.571658    Uiso  ? C
   C4         1.0     0.111701     0.556735     0.571658    Uiso  ? C
   C5         1.0     0.111027     0.222310     0.509336    Uiso  ? C
   N11        1.0     0.999999     0.333334     0.406140    Uiso  ? N
   C6         1.0     0.222373     0.444522     0.488642    Uiso  ? C
   C7         1.0     0.888817     0.110962     0.488643    Uiso  ? C
   C8         1.0     0.888817     0.444521     0.488642    Uiso  ? C
   C9         1.0     0.222334     0.444502     0.426499    Uiso  ? C
   C10        1.0     0.888835     0.444501     0.426499    Uiso  ? C
   C11        1.0     0.111027     0.555388     0.509336    Uiso  ? C
   N12        1.0     0.333337     1.000007     0.592312    Uiso  ? N
   C12        1.0     0.222246     0.777828     0.488977    Uiso  ? C
   C13        1.0     0.555512     0.111089     0.488977    Uiso  ? C
   C14        1.0     0.222332     0.777999     0.426593    Uiso  ? C
   C15        1.0     0.555339     0.111002     0.426593    Uiso  ? C
   C16        1.0     0.112309     0.889493     0.572013    Uiso  ? C
   C17        1.0     0.111090     0.888883     0.509842    Uiso  ? C
   N13        1.0     0.333334     0.999999     0.406290    Uiso  ? N
   C18        1.0     0.443850     0.221029     0.572013    Uiso  ? C
   C19        1.0     0.443850     0.889493     0.572013    Uiso  ? C
   C20        1.0     0.444458     0.222247     0.509842    Uiso  ? C
   C21        1.0     0.444458     0.888882     0.509842    Uiso  ? C
   N14        1.0     0.333727     0.333456     0.406489    Uiso  ? N
   N15        1.0     0.666397     0.333456     0.406489    Uiso  ? N
   Si1        1.0     0.666671     0.666671     0.611622    Uiso  ? Si
   H1         1.0     0.666672     0.666669     0.670202    Uiso  ? H
   C22        1.0     0.555781     0.444893     0.489738    Uiso  ? C
   C23        1.0     0.555781     0.777559     0.489738    Uiso  ? C
   C24        1.0     0.888446     0.777559     0.489738    Uiso  ? C
   C25        1.0     0.555653     0.444638     0.427033    Uiso  ? C
   C26        1.0     0.555653     0.777685     0.427033    Uiso  ? C
   C27        1.0     0.888700     0.777685     0.427033    Uiso  ? C
   C28        1.0     0.427363     0.547017     0.572732    Uiso  ? C
   C29        1.0     0.786324     0.547017     0.572732    Uiso  ? C
   C30        1.0     0.443494     0.555082     0.510348    Uiso  ? C
   C31        1.0     0.778257     0.555082     0.510348    Uiso  ? C
   C32        1.0     0.778258     0.889846     0.510348    Uiso  ? C
   N16        1.0     1.000005     0.333336     0.592200    Uiso  ? N
   C33        1.0     0.888835     0.110999     0.426499    Uiso  ? C
   C34        1.0     0.776607     0.221637     0.571658    Uiso  ? C
   C35        1.0     0.777952     0.222309     0.509336    Uiso  ? C
   N17        1.0     0.666668     0.666669     0.406824    Uiso  ? N
   C36        1.0     0.786325     0.905980     0.572733    Uiso  ? C
